1000

Cr	0	0	3.048
Cr	3.787	0	3.048
Cr	7.574	0	3.048
Cr	11.361	0	3.048
Cr	15.148	0	3.048
Cr	18.935	0	3.048
Cr	22.722	0	3.048
Cr	26.509	0	3.048
Cr	30.296	0	3.048
Cr	34.083	0	3.048
Cr	0	3.787	3.048
Cr	3.787	3.787	3.048
Cr	7.574	3.787	3.048
Cr	11.361	3.787	3.048
Cr	15.148	3.787	3.048
Cr	18.935	3.787	3.048
Cr	22.722	3.787	3.048
Cr	26.509	3.787	3.048
Cr	30.296	3.787	3.048
Cr	34.083	3.787	3.048
Cr	0	7.574	3.048
Cr	3.787	7.574	3.048
Cr	7.574	7.574	3.048
Cr	11.361	7.574	3.048
Cr	15.148	7.574	3.048
Cr	18.935	7.574	3.048
Cr	22.722	7.574	3.048
Cr	26.509	7.574	3.048
Cr	30.296	7.574	3.048
Cr	34.083	7.574	3.048
Cr	0	11.361	3.048
Cr	3.787	11.361	3.048
Cr	7.574	11.361	3.048
Cr	11.361	11.361	3.048
Cr	15.148	11.361	3.048
Cr	18.935	11.361	3.048
Cr	22.722	11.361	3.048
Cr	26.509	11.361	3.048
Cr	30.296	11.361	3.048
Cr	34.083	11.361	3.048
Cr	0	15.148	3.048
Cr	3.787	15.148	3.048
Cr	7.574	15.148	3.048
Cr	11.361	15.148	3.048
Cr	15.148	15.148	3.048
Cr	18.935	15.148	3.048
Cr	22.722	15.148	3.048
Cr	26.509	15.148	3.048
Cr	30.296	15.148	3.048
Cr	34.083	15.148	3.048
Cr	0	0	9.144
Cr	3.787	0	9.144
Cr	7.574	0	9.144
Cr	11.361	0	9.144
Cr	15.148	0	9.144
Cr	18.935	0	9.144
Cr	22.722	0	9.144
Cr	26.509	0	9.144
Cr	30.296	0	9.144
Cr	34.083	0	9.144
Cr	0	3.787	9.144
Cr	3.787	3.787	9.144
Cr	7.574	3.787	9.144
Cr	11.361	3.787	9.144
Cr	15.148	3.787	9.144
Cr	18.935	3.787	9.144
Cr	22.722	3.787	9.144
Cr	26.509	3.787	9.144
Cr	30.296	3.787	9.144
Cr	34.083	3.787	9.144
Cr	0	7.574	9.144
Cr	3.787	7.574	9.144
Cr	7.574	7.574	9.144
Cr	11.361	7.574	9.144
Cr	15.148	7.574	9.144
Cr	18.935	7.574	9.144
Cr	22.722	7.574	9.144
Cr	26.509	7.574	9.144
Cr	30.296	7.574	9.144
Cr	34.083	7.574	9.144
Cr	0	11.361	9.144
Cr	3.787	11.361	9.144
Cr	7.574	11.361	9.144
Cr	11.361	11.361	9.144
Cr	15.148	11.361	9.144
Cr	18.935	11.361	9.144
Cr	22.722	11.361	9.144
Cr	26.509	11.361	9.144
Cr	30.296	11.361	9.144
Cr	34.083	11.361	9.144
Cr	0	15.148	9.144
Cr	3.787	15.148	9.144
Cr	7.574	15.148	9.144
Cr	11.361	15.148	9.144
Cr	15.148	15.148	9.144
Cr	18.935	15.148	9.144
Cr	22.722	15.148	9.144
Cr	26.509	15.148	9.144
Cr	30.296	15.148	9.144
Cr	34.083	15.148	9.144
Cr	0	18.935	3.048
Cr	3.787	18.935	3.048
Cr	7.574	18.935	3.048
Cr	11.361	18.935	3.048
Cr	15.148	18.935	3.048
Cr	18.935	18.935	3.048
Cr	22.722	18.935	3.048
Cr	26.509	18.935	3.048
Cr	30.296	18.935	3.048
Cr	34.083	18.935	3.048
Cr	0	22.722	3.048
Cr	3.787	22.722	3.048
Cr	7.574	22.722	3.048
Cr	11.361	22.722	3.048
Cr	15.148	22.722	3.048
Cr	18.935	22.722	3.048
Cr	22.722	22.722	3.048
Cr	26.509	22.722	3.048
Cr	30.296	22.722	3.048
Cr	34.083	22.722	3.048
Cr	0	26.509	3.048
Cr	3.787	26.509	3.048
Cr	7.574	26.509	3.048
Cr	11.361	26.509	3.048
Cr	15.148	26.509	3.048
Cr	18.935	26.509	3.048
Cr	22.722	26.509	3.048
Cr	26.509	26.509	3.048
Cr	30.296	26.509	3.048
Cr	34.083	26.509	3.048
Cr	0	30.296	3.048
Cr	3.787	30.296	3.048
Cr	7.574	30.296	3.048
Cr	11.361	30.296	3.048
Cr	15.148	30.296	3.048
Cr	18.935	30.296	3.048
Cr	22.722	30.296	3.048
Cr	26.509	30.296	3.048
Cr	30.296	30.296	3.048
Cr	34.083	30.296	3.048
Cr	0	34.083	3.048
Cr	3.787	34.083	3.048
Cr	7.574	34.083	3.048
Cr	11.361	34.083	3.048
Cr	15.148	34.083	3.048
Cr	18.935	34.083	3.048
Cr	22.722	34.083	3.048
Cr	26.509	34.083	3.048
Cr	30.296	34.083	3.048
Cr	34.083	34.083	3.048
Cr	0	18.935	9.144
Cr	3.787	18.935	9.144
Cr	7.574	18.935	9.144
Cr	11.361	18.935	9.144
Cr	15.148	18.935	9.144
Cr	18.935	18.935	9.144
Cr	22.722	18.935	9.144
Cr	26.509	18.935	9.144
Cr	30.296	18.935	9.144
Cr	34.083	18.935	9.144
Cr	0	22.722	9.144
Cr	3.787	22.722	9.144
Cr	7.574	22.722	9.144
Cr	11.361	22.722	9.144
Cr	15.148	22.722	9.144
Cr	18.935	22.722	9.144
Cr	22.722	22.722	9.144
Cr	26.509	22.722	9.144
Cr	30.296	22.722	9.144
Cr	34.083	22.722	9.144
Cr	0	26.509	9.144
Cr	3.787	26.509	9.144
Cr	7.574	26.509	9.144
Cr	11.361	26.509	9.144
Cr	15.148	26.509	9.144
Cr	18.935	26.509	9.144
Cr	22.722	26.509	9.144
Cr	26.509	26.509	9.144
Cr	30.296	26.509	9.144
Cr	34.083	26.509	9.144
Cr	0	30.296	9.144
Cr	3.787	30.296	9.144
Cr	7.574	30.296	9.144
Cr	11.361	30.296	9.144
Cr	15.148	30.296	9.144
Cr	18.935	30.296	9.144
Cr	22.722	30.296	9.144
Cr	26.509	30.296	9.144
Cr	30.296	30.296	9.144
Cr	34.083	30.296	9.144
Cr	0	34.083	9.144
Cr	3.787	34.083	9.144
Cr	7.574	34.083	9.144
Cr	11.361	34.083	9.144
Cr	15.148	34.083	9.144
Cr	18.935	34.083	9.144
Cr	22.722	34.083	9.144
Cr	26.509	34.083	9.144
Cr	30.296	34.083	9.144
Cr	34.083	34.083	9.144
Cr	0	0	15.24
Cr	3.787	0	15.24
Cr	7.574	0	15.24
Cr	11.361	0	15.24
Cr	15.148	0	15.24
Cr	18.935	0	15.24
Cr	22.722	0	15.24
Cr	26.509	0	15.24
Cr	30.296	0	15.24
Cr	34.083	0	15.24
Cr	0	3.787	15.24
Cr	3.787	3.787	15.24
Cr	7.574	3.787	15.24
Cr	11.361	3.787	15.24
Cr	15.148	3.787	15.24
Cr	18.935	3.787	15.24
Cr	22.722	3.787	15.24
Cr	26.509	3.787	15.24
Cr	30.296	3.787	15.24
Cr	34.083	3.787	15.24
Cr	0	7.574	15.24
Cr	3.787	7.574	15.24
Cr	7.574	7.574	15.24
Cr	11.361	7.574	15.24
Cr	15.148	7.574	15.24
Cr	18.935	7.574	15.24
Cr	22.722	7.574	15.24
Cr	26.509	7.574	15.24
Cr	30.296	7.574	15.24
Cr	34.083	7.574	15.24
Cr	0	11.361	15.24
Cr	3.787	11.361	15.24
Cr	7.574	11.361	15.24
Cr	11.361	11.361	15.24
Cr	15.148	11.361	15.24
Cr	18.935	11.361	15.24
Cr	22.722	11.361	15.24
Cr	26.509	11.361	15.24
Cr	30.296	11.361	15.24
Cr	34.083	11.361	15.24
Cr	0	15.148	15.24
Cr	3.787	15.148	15.24
Cr	7.574	15.148	15.24
Cr	11.361	15.148	15.24
Cr	15.148	15.148	15.24
Cr	18.935	15.148	15.24
Cr	22.722	15.148	15.24
Cr	26.509	15.148	15.24
Cr	30.296	15.148	15.24
Cr	34.083	15.148	15.24
Cr	0	0	21.336
Cr	3.787	0	21.336
Cr	7.574	0	21.336
Cr	11.361	0	21.336
Cr	15.148	0	21.336
Cr	18.935	0	21.336
Cr	22.722	0	21.336
Cr	26.509	0	21.336
Cr	30.296	0	21.336
Cr	34.083	0	21.336
Cr	0	3.787	21.336
Cr	3.787	3.787	21.336
Cr	7.574	3.787	21.336
Cr	11.361	3.787	21.336
Cr	15.148	3.787	21.336
Cr	18.935	3.787	21.336
Cr	22.722	3.787	21.336
Cr	26.509	3.787	21.336
Cr	30.296	3.787	21.336
Cr	34.083	3.787	21.336
Cr	0	7.574	21.336
Cr	3.787	7.574	21.336
Cr	7.574	7.574	21.336
Cr	11.361	7.574	21.336
Cr	15.148	7.574	21.336
Cr	18.935	7.574	21.336
Cr	22.722	7.574	21.336
Cr	26.509	7.574	21.336
Cr	30.296	7.574	21.336
Cr	34.083	7.574	21.336
Cr	0	11.361	21.336
Cr	3.787	11.361	21.336
Cr	7.574	11.361	21.336
Cr	11.361	11.361	21.336
Cr	15.148	11.361	21.336
Cr	18.935	11.361	21.336
Cr	22.722	11.361	21.336
Cr	26.509	11.361	21.336
Cr	30.296	11.361	21.336
Cr	34.083	11.361	21.336
Cr	0	15.148	21.336
Cr	3.787	15.148	21.336
Cr	7.574	15.148	21.336
Cr	11.361	15.148	21.336
Cr	15.148	15.148	21.336
Cr	18.935	15.148	21.336
Cr	22.722	15.148	21.336
Cr	26.509	15.148	21.336
Cr	30.296	15.148	21.336
Cr	34.083	15.148	21.336
Cr	0	18.935	15.24
Cr	3.787	18.935	15.24
Cr	7.574	18.935	15.24
Cr	11.361	18.935	15.24
Cr	15.148	18.935	15.24
Cr	18.935	18.935	15.24
Cr	22.722	18.935	15.24
Cr	26.509	18.935	15.24
Cr	30.296	18.935	15.24
Cr	34.083	18.935	15.24
Cr	0	22.722	15.24
Cr	3.787	22.722	15.24
Cr	7.574	22.722	15.24
Cr	11.361	22.722	15.24
Cr	15.148	22.722	15.24
Cr	18.935	22.722	15.24
Cr	22.722	22.722	15.24
Cr	26.509	22.722	15.24
Cr	30.296	22.722	15.24
Cr	34.083	22.722	15.24
Cr	0	26.509	15.24
Cr	3.787	26.509	15.24
Cr	7.574	26.509	15.24
Cr	11.361	26.509	15.24
Cr	15.148	26.509	15.24
Cr	18.935	26.509	15.24
Cr	22.722	26.509	15.24
Cr	26.509	26.509	15.24
Cr	30.296	26.509	15.24
Cr	34.083	26.509	15.24
Cr	0	30.296	15.24
Cr	3.787	30.296	15.24
Cr	7.574	30.296	15.24
Cr	11.361	30.296	15.24
Cr	15.148	30.296	15.24
Cr	18.935	30.296	15.24
Cr	22.722	30.296	15.24
Cr	26.509	30.296	15.24
Cr	30.296	30.296	15.24
Cr	34.083	30.296	15.24
Cr	0	34.083	15.24
Cr	3.787	34.083	15.24
Cr	7.574	34.083	15.24
Cr	11.361	34.083	15.24
Cr	15.148	34.083	15.24
Cr	18.935	34.083	15.24
Cr	22.722	34.083	15.24
Cr	26.509	34.083	15.24
Cr	30.296	34.083	15.24
Cr	34.083	34.083	15.24
Cr	0	18.935	21.336
Cr	3.787	18.935	21.336
Cr	7.574	18.935	21.336
Cr	11.361	18.935	21.336
Cr	15.148	18.935	21.336
Cr	18.935	18.935	21.336
Cr	22.722	18.935	21.336
Cr	26.509	18.935	21.336
Cr	30.296	18.935	21.336
Cr	34.083	18.935	21.336
Cr	0	22.722	21.336
Cr	3.787	22.722	21.336
Cr	7.574	22.722	21.336
Cr	11.361	22.722	21.336
Cr	15.148	22.722	21.336
Cr	18.935	22.722	21.336
Cr	22.722	22.722	21.336
Cr	26.509	22.722	21.336
Cr	30.296	22.722	21.336
Cr	34.083	22.722	21.336
Cr	0	26.509	21.336
Cr	3.787	26.509	21.336
Cr	7.574	26.509	21.336
Cr	11.361	26.509	21.336
Cr	15.148	26.509	21.336
Cr	18.935	26.509	21.336
Cr	22.722	26.509	21.336
Cr	26.509	26.509	21.336
Cr	30.296	26.509	21.336
Cr	34.083	26.509	21.336
Cr	0	30.296	21.336
Cr	3.787	30.296	21.336
Cr	7.574	30.296	21.336
Cr	11.361	30.296	21.336
Cr	15.148	30.296	21.336
Cr	18.935	30.296	21.336
Cr	22.722	30.296	21.336
Cr	26.509	30.296	21.336
Cr	30.296	30.296	21.336
Cr	34.083	30.296	21.336
Cr	0	34.083	21.336
Cr	3.787	34.083	21.336
Cr	7.574	34.083	21.336
Cr	11.361	34.083	21.336
Cr	15.148	34.083	21.336
Cr	18.935	34.083	21.336
Cr	22.722	34.083	21.336
Cr	26.509	34.083	21.336
Cr	30.296	34.083	21.336
Cr	34.083	34.083	21.336
Cr	0	0	27.432
Cr	3.787	0	27.432
Cr	7.574	0	27.432
Cr	11.361	0	27.432
Cr	15.148	0	27.432
Cr	18.935	0	27.432
Cr	22.722	0	27.432
Cr	26.509	0	27.432
Cr	30.296	0	27.432
Cr	34.083	0	27.432
Cr	0	3.787	27.432
Cr	3.787	3.787	27.432
Cr	7.574	3.787	27.432
Cr	11.361	3.787	27.432
Cr	15.148	3.787	27.432
Cr	18.935	3.787	27.432
Cr	22.722	3.787	27.432
Cr	26.509	3.787	27.432
Cr	30.296	3.787	27.432
Cr	34.083	3.787	27.432
Cr	0	7.574	27.432
Cr	3.787	7.574	27.432
Cr	7.574	7.574	27.432
Cr	11.361	7.574	27.432
Cr	15.148	7.574	27.432
Cr	18.935	7.574	27.432
Cr	22.722	7.574	27.432
Cr	26.509	7.574	27.432
Cr	30.296	7.574	27.432
Cr	34.083	7.574	27.432
Cr	0	11.361	27.432
Cr	3.787	11.361	27.432
Cr	7.574	11.361	27.432
Cr	11.361	11.361	27.432
Cr	15.148	11.361	27.432
Cr	18.935	11.361	27.432
Cr	22.722	11.361	27.432
Cr	26.509	11.361	27.432
Cr	30.296	11.361	27.432
Cr	34.083	11.361	27.432
Cr	0	15.148	27.432
Cr	3.787	15.148	27.432
Cr	7.574	15.148	27.432
Cr	11.361	15.148	27.432
Cr	15.148	15.148	27.432
Cr	18.935	15.148	27.432
Cr	22.722	15.148	27.432
Cr	26.509	15.148	27.432
Cr	30.296	15.148	27.432
Cr	34.083	15.148	27.432
Cr	0	0	33.528
Cr	3.787	0	33.528
Cr	7.574	0	33.528
Cr	11.361	0	33.528
Cr	15.148	0	33.528
Cr	18.935	0	33.528
Cr	22.722	0	33.528
Cr	26.509	0	33.528
Cr	30.296	0	33.528
Cr	34.083	0	33.528
Cr	0	3.787	33.528
Cr	3.787	3.787	33.528
Cr	7.574	3.787	33.528
Cr	11.361	3.787	33.528
Cr	15.148	3.787	33.528
Cr	18.935	3.787	33.528
Cr	22.722	3.787	33.528
Cr	26.509	3.787	33.528
Cr	30.296	3.787	33.528
Cr	34.083	3.787	33.528
Cr	0	7.574	33.528
Cr	3.787	7.574	33.528
Cr	7.574	7.574	33.528
Cr	11.361	7.574	33.528
Cr	15.148	7.574	33.528
Cr	18.935	7.574	33.528
Cr	22.722	7.574	33.528
Cr	26.509	7.574	33.528
Cr	30.296	7.574	33.528
Cr	34.083	7.574	33.528
Cr	0	11.361	33.528
Cr	3.787	11.361	33.528
Cr	7.574	11.361	33.528
Cr	11.361	11.361	33.528
Cr	15.148	11.361	33.528
Cr	18.935	11.361	33.528
Cr	22.722	11.361	33.528
Cr	26.509	11.361	33.528
Cr	30.296	11.361	33.528
Cr	34.083	11.361	33.528
Cr	0	15.148	33.528
Cr	3.787	15.148	33.528
Cr	7.574	15.148	33.528
Cr	11.361	15.148	33.528
Cr	15.148	15.148	33.528
Cr	18.935	15.148	33.528
Cr	22.722	15.148	33.528
Cr	26.509	15.148	33.528
Cr	30.296	15.148	33.528
Cr	34.083	15.148	33.528
Cr	0	18.935	27.432
Cr	3.787	18.935	27.432
Cr	7.574	18.935	27.432
Cr	11.361	18.935	27.432
Cr	15.148	18.935	27.432
Cr	18.935	18.935	27.432
Cr	22.722	18.935	27.432
Cr	26.509	18.935	27.432
Cr	30.296	18.935	27.432
Cr	34.083	18.935	27.432
Cr	0	22.722	27.432
Cr	3.787	22.722	27.432
Cr	7.574	22.722	27.432
Cr	11.361	22.722	27.432
Cr	15.148	22.722	27.432
Cr	18.935	22.722	27.432
Cr	22.722	22.722	27.432
Cr	26.509	22.722	27.432
Cr	30.296	22.722	27.432
Cr	34.083	22.722	27.432
Cr	0	26.509	27.432
Cr	3.787	26.509	27.432
Cr	7.574	26.509	27.432
Cr	11.361	26.509	27.432
Cr	15.148	26.509	27.432
Cr	18.935	26.509	27.432
Cr	22.722	26.509	27.432
Cr	26.509	26.509	27.432
Cr	30.296	26.509	27.432
Cr	34.083	26.509	27.432
Cr	0	30.296	27.432
Cr	3.787	30.296	27.432
Cr	7.574	30.296	27.432
Cr	11.361	30.296	27.432
Cr	15.148	30.296	27.432
Cr	18.935	30.296	27.432
Cr	22.722	30.296	27.432
Cr	26.509	30.296	27.432
Cr	30.296	30.296	27.432
Cr	34.083	30.296	27.432
Cr	0	34.083	27.432
Cr	3.787	34.083	27.432
Cr	7.574	34.083	27.432
Cr	11.361	34.083	27.432
Cr	15.148	34.083	27.432
Cr	18.935	34.083	27.432
Cr	22.722	34.083	27.432
Cr	26.509	34.083	27.432
Cr	30.296	34.083	27.432
Cr	34.083	34.083	27.432
Cr	0	18.935	33.528
Cr	3.787	18.935	33.528
Cr	7.574	18.935	33.528
Cr	11.361	18.935	33.528
Cr	15.148	18.935	33.528
Cr	18.935	18.935	33.528
Cr	22.722	18.935	33.528
Cr	26.509	18.935	33.528
Cr	30.296	18.935	33.528
Cr	34.083	18.935	33.528
Cr	0	22.722	33.528
Cr	3.787	22.722	33.528
Cr	7.574	22.722	33.528
Cr	11.361	22.722	33.528
Cr	15.148	22.722	33.528
Cr	18.935	22.722	33.528
Cr	22.722	22.722	33.528
Cr	26.509	22.722	33.528
Cr	30.296	22.722	33.528
Cr	34.083	22.722	33.528
Cr	0	26.509	33.528
Cr	3.787	26.509	33.528
Cr	7.574	26.509	33.528
Cr	11.361	26.509	33.528
Cr	15.148	26.509	33.528
Cr	18.935	26.509	33.528
Cr	22.722	26.509	33.528
Cr	26.509	26.509	33.528
Cr	30.296	26.509	33.528
Cr	34.083	26.509	33.528
Cr	0	30.296	33.528
Cr	3.787	30.296	33.528
Cr	7.574	30.296	33.528
Cr	11.361	30.296	33.528
Cr	15.148	30.296	33.528
Cr	18.935	30.296	33.528
Cr	22.722	30.296	33.528
Cr	26.509	30.296	33.528
Cr	30.296	30.296	33.528
Cr	34.083	30.296	33.528
Cr	0	34.083	33.528
Cr	3.787	34.083	33.528
Cr	7.574	34.083	33.528
Cr	11.361	34.083	33.528
Cr	15.148	34.083	33.528
Cr	18.935	34.083	33.528
Cr	22.722	34.083	33.528
Cr	26.509	34.083	33.528
Cr	30.296	34.083	33.528
Cr	34.083	34.083	33.528
Cr	0	0	39.624
Cr	3.787	0	39.624
Cr	7.574	0	39.624
Cr	11.361	0	39.624
Cr	15.148	0	39.624
Cr	18.935	0	39.624
Cr	22.722	0	39.624
Cr	26.509	0	39.624
Cr	30.296	0	39.624
Cr	34.083	0	39.624
Cr	0	3.787	39.624
Cr	3.787	3.787	39.624
Cr	7.574	3.787	39.624
Cr	11.361	3.787	39.624
Cr	15.148	3.787	39.624
Cr	18.935	3.787	39.624
Cr	22.722	3.787	39.624
Cr	26.509	3.787	39.624
Cr	30.296	3.787	39.624
Cr	34.083	3.787	39.624
Cr	0	7.574	39.624
Cr	3.787	7.574	39.624
Cr	7.574	7.574	39.624
Cr	11.361	7.574	39.624
Cr	15.148	7.574	39.624
Cr	18.935	7.574	39.624
Cr	22.722	7.574	39.624
Cr	26.509	7.574	39.624
Cr	30.296	7.574	39.624
Cr	34.083	7.574	39.624
Cr	0	11.361	39.624
Cr	3.787	11.361	39.624
Cr	7.574	11.361	39.624
Cr	11.361	11.361	39.624
Cr	15.148	11.361	39.624
Cr	18.935	11.361	39.624
Cr	22.722	11.361	39.624
Cr	26.509	11.361	39.624
Cr	30.296	11.361	39.624
Cr	34.083	11.361	39.624
Cr	0	15.148	39.624
Cr	3.787	15.148	39.624
Cr	7.574	15.148	39.624
Cr	11.361	15.148	39.624
Cr	15.148	15.148	39.624
Cr	18.935	15.148	39.624
Cr	22.722	15.148	39.624
Cr	26.509	15.148	39.624
Cr	30.296	15.148	39.624
Cr	34.083	15.148	39.624
Cr	0	0	45.72
Cr	3.787	0	45.72
Cr	7.574	0	45.72
Cr	11.361	0	45.72
Cr	15.148	0	45.72
Cr	18.935	0	45.72
Cr	22.722	0	45.72
Cr	26.509	0	45.72
Cr	30.296	0	45.72
Cr	34.083	0	45.72
Cr	0	3.787	45.72
Cr	3.787	3.787	45.72
Cr	7.574	3.787	45.72
Cr	11.361	3.787	45.72
Cr	15.148	3.787	45.72
Cr	18.935	3.787	45.72
Cr	22.722	3.787	45.72
Cr	26.509	3.787	45.72
Cr	30.296	3.787	45.72
Cr	34.083	3.787	45.72
Cr	0	7.574	45.72
Cr	3.787	7.574	45.72
Cr	7.574	7.574	45.72
Cr	11.361	7.574	45.72
Cr	15.148	7.574	45.72
Cr	18.935	7.574	45.72
Cr	22.722	7.574	45.72
Cr	26.509	7.574	45.72
Cr	30.296	7.574	45.72
Cr	34.083	7.574	45.72
Cr	0	11.361	45.72
Cr	3.787	11.361	45.72
Cr	7.574	11.361	45.72
Cr	11.361	11.361	45.72
Cr	15.148	11.361	45.72
Cr	18.935	11.361	45.72
Cr	22.722	11.361	45.72
Cr	26.509	11.361	45.72
Cr	30.296	11.361	45.72
Cr	34.083	11.361	45.72
Cr	0	15.148	45.72
Cr	3.787	15.148	45.72
Cr	7.574	15.148	45.72
Cr	11.361	15.148	45.72
Cr	15.148	15.148	45.72
Cr	18.935	15.148	45.72
Cr	22.722	15.148	45.72
Cr	26.509	15.148	45.72
Cr	30.296	15.148	45.72
Cr	34.083	15.148	45.72
Cr	0	18.935	39.624
Cr	3.787	18.935	39.624
Cr	7.574	18.935	39.624
Cr	11.361	18.935	39.624
Cr	15.148	18.935	39.624
Cr	18.935	18.935	39.624
Cr	22.722	18.935	39.624
Cr	26.509	18.935	39.624
Cr	30.296	18.935	39.624
Cr	34.083	18.935	39.624
Cr	0	22.722	39.624
Cr	3.787	22.722	39.624
Cr	7.574	22.722	39.624
Cr	11.361	22.722	39.624
Cr	15.148	22.722	39.624
Cr	18.935	22.722	39.624
Cr	22.722	22.722	39.624
Cr	26.509	22.722	39.624
Cr	30.296	22.722	39.624
Cr	34.083	22.722	39.624
Cr	0	26.509	39.624
Cr	3.787	26.509	39.624
Cr	7.574	26.509	39.624
Cr	11.361	26.509	39.624
Cr	15.148	26.509	39.624
Cr	18.935	26.509	39.624
Cr	22.722	26.509	39.624
Cr	26.509	26.509	39.624
Cr	30.296	26.509	39.624
Cr	34.083	26.509	39.624
Cr	0	30.296	39.624
Cr	3.787	30.296	39.624
Cr	7.574	30.296	39.624
Cr	11.361	30.296	39.624
Cr	15.148	30.296	39.624
Cr	18.935	30.296	39.624
Cr	22.722	30.296	39.624
Cr	26.509	30.296	39.624
Cr	30.296	30.296	39.624
Cr	34.083	30.296	39.624
Cr	0	34.083	39.624
Cr	3.787	34.083	39.624
Cr	7.574	34.083	39.624
Cr	11.361	34.083	39.624
Cr	15.148	34.083	39.624
Cr	18.935	34.083	39.624
Cr	22.722	34.083	39.624
Cr	26.509	34.083	39.624
Cr	30.296	34.083	39.624
Cr	34.083	34.083	39.624
Cr	0	18.935	45.72
Cr	3.787	18.935	45.72
Cr	7.574	18.935	45.72
Cr	11.361	18.935	45.72
Cr	15.148	18.935	45.72
Cr	18.935	18.935	45.72
Cr	22.722	18.935	45.72
Cr	26.509	18.935	45.72
Cr	30.296	18.935	45.72
Cr	34.083	18.935	45.72
Cr	0	22.722	45.72
Cr	3.787	22.722	45.72
Cr	7.574	22.722	45.72
Cr	11.361	22.722	45.72
Cr	15.148	22.722	45.72
Cr	18.935	22.722	45.72
Cr	22.722	22.722	45.72
Cr	26.509	22.722	45.72
Cr	30.296	22.722	45.72
Cr	34.083	22.722	45.72
Cr	0	26.509	45.72
Cr	3.787	26.509	45.72
Cr	7.574	26.509	45.72
Cr	11.361	26.509	45.72
Cr	15.148	26.509	45.72
Cr	18.935	26.509	45.72
Cr	22.722	26.509	45.72
Cr	26.509	26.509	45.72
Cr	30.296	26.509	45.72
Cr	34.083	26.509	45.72
Cr	0	30.296	45.72
Cr	3.787	30.296	45.72
Cr	7.574	30.296	45.72
Cr	11.361	30.296	45.72
Cr	15.148	30.296	45.72
Cr	18.935	30.296	45.72
Cr	22.722	30.296	45.72
Cr	26.509	30.296	45.72
Cr	30.296	30.296	45.72
Cr	34.083	30.296	45.72
Cr	0	34.083	45.72
Cr	3.787	34.083	45.72
Cr	7.574	34.083	45.72
Cr	11.361	34.083	45.72
Cr	15.148	34.083	45.72
Cr	18.935	34.083	45.72
Cr	22.722	34.083	45.72
Cr	26.509	34.083	45.72
Cr	30.296	34.083	45.72
Cr	34.083	34.083	45.72
Cr	0	0	51.816
Cr	3.787	0	51.816
Cr	7.574	0	51.816
Cr	11.361	0	51.816
Cr	15.148	0	51.816
Cr	18.935	0	51.816
Cr	22.722	0	51.816
Cr	26.509	0	51.816
Cr	30.296	0	51.816
Cr	34.083	0	51.816
Cr	0	3.787	51.816
Cr	3.787	3.787	51.816
Cr	7.574	3.787	51.816
Cr	11.361	3.787	51.816
Cr	15.148	3.787	51.816
Cr	18.935	3.787	51.816
Cr	22.722	3.787	51.816
Cr	26.509	3.787	51.816
Cr	30.296	3.787	51.816
Cr	34.083	3.787	51.816
Cr	0	7.574	51.816
Cr	3.787	7.574	51.816
Cr	7.574	7.574	51.816
Cr	11.361	7.574	51.816
Cr	15.148	7.574	51.816
Cr	18.935	7.574	51.816
Cr	22.722	7.574	51.816
Cr	26.509	7.574	51.816
Cr	30.296	7.574	51.816
Cr	34.083	7.574	51.816
Cr	0	11.361	51.816
Cr	3.787	11.361	51.816
Cr	7.574	11.361	51.816
Cr	11.361	11.361	51.816
Cr	15.148	11.361	51.816
Cr	18.935	11.361	51.816
Cr	22.722	11.361	51.816
Cr	26.509	11.361	51.816
Cr	30.296	11.361	51.816
Cr	34.083	11.361	51.816
Cr	0	15.148	51.816
Cr	3.787	15.148	51.816
Cr	7.574	15.148	51.816
Cr	11.361	15.148	51.816
Cr	15.148	15.148	51.816
Cr	18.935	15.148	51.816
Cr	22.722	15.148	51.816
Cr	26.509	15.148	51.816
Cr	30.296	15.148	51.816
Cr	34.083	15.148	51.816
Cr	0	0	57.912
Cr	3.787	0	57.912
Cr	7.574	0	57.912
Cr	11.361	0	57.912
Cr	15.148	0	57.912
Cr	18.935	0	57.912
Cr	22.722	0	57.912
Cr	26.509	0	57.912
Cr	30.296	0	57.912
Cr	34.083	0	57.912
Cr	0	3.787	57.912
Cr	3.787	3.787	57.912
Cr	7.574	3.787	57.912
Cr	11.361	3.787	57.912
Cr	15.148	3.787	57.912
Cr	18.935	3.787	57.912
Cr	22.722	3.787	57.912
Cr	26.509	3.787	57.912
Cr	30.296	3.787	57.912
Cr	34.083	3.787	57.912
Cr	0	7.574	57.912
Cr	3.787	7.574	57.912
Cr	7.574	7.574	57.912
Cr	11.361	7.574	57.912
Cr	15.148	7.574	57.912
Cr	18.935	7.574	57.912
Cr	22.722	7.574	57.912
Cr	26.509	7.574	57.912
Cr	30.296	7.574	57.912
Cr	34.083	7.574	57.912
Cr	0	11.361	57.912
Cr	3.787	11.361	57.912
Cr	7.574	11.361	57.912
Cr	11.361	11.361	57.912
Cr	15.148	11.361	57.912
Cr	18.935	11.361	57.912
Cr	22.722	11.361	57.912
Cr	26.509	11.361	57.912
Cr	30.296	11.361	57.912
Cr	34.083	11.361	57.912
Cr	0	15.148	57.912
Cr	3.787	15.148	57.912
Cr	7.574	15.148	57.912
Cr	11.361	15.148	57.912
Cr	15.148	15.148	57.912
Cr	18.935	15.148	57.912
Cr	22.722	15.148	57.912
Cr	26.509	15.148	57.912
Cr	30.296	15.148	57.912
Cr	34.083	15.148	57.912
Cr	0	18.935	51.816
Cr	3.787	18.935	51.816
Cr	7.574	18.935	51.816
Cr	11.361	18.935	51.816
Cr	15.148	18.935	51.816
Cr	18.935	18.935	51.816
Cr	22.722	18.935	51.816
Cr	26.509	18.935	51.816
Cr	30.296	18.935	51.816
Cr	34.083	18.935	51.816
Cr	0	22.722	51.816
Cr	3.787	22.722	51.816
Cr	7.574	22.722	51.816
Cr	11.361	22.722	51.816
Cr	15.148	22.722	51.816
Cr	18.935	22.722	51.816
Cr	22.722	22.722	51.816
Cr	26.509	22.722	51.816
Cr	30.296	22.722	51.816
Cr	34.083	22.722	51.816
Cr	0	26.509	51.816
Cr	3.787	26.509	51.816
Cr	7.574	26.509	51.816
Cr	11.361	26.509	51.816
Cr	15.148	26.509	51.816
Cr	18.935	26.509	51.816
Cr	22.722	26.509	51.816
Cr	26.509	26.509	51.816
Cr	30.296	26.509	51.816
Cr	34.083	26.509	51.816
Cr	0	30.296	51.816
Cr	3.787	30.296	51.816
Cr	7.574	30.296	51.816
Cr	11.361	30.296	51.816
Cr	15.148	30.296	51.816
Cr	18.935	30.296	51.816
Cr	22.722	30.296	51.816
Cr	26.509	30.296	51.816
Cr	30.296	30.296	51.816
Cr	34.083	30.296	51.816
Cr	0	34.083	51.816
Cr	3.787	34.083	51.816
Cr	7.574	34.083	51.816
Cr	11.361	34.083	51.816
Cr	15.148	34.083	51.816
Cr	18.935	34.083	51.816
Cr	22.722	34.083	51.816
Cr	26.509	34.083	51.816
Cr	30.296	34.083	51.816
Cr	34.083	34.083	51.816
Cr	0	18.935	57.912
Cr	3.787	18.935	57.912
Cr	7.574	18.935	57.912
Cr	11.361	18.935	57.912
Cr	15.148	18.935	57.912
Cr	18.935	18.935	57.912
Cr	22.722	18.935	57.912
Cr	26.509	18.935	57.912
Cr	30.296	18.935	57.912
Cr	34.083	18.935	57.912
Cr	0	22.722	57.912
Cr	3.787	22.722	57.912
Cr	7.574	22.722	57.912
Cr	11.361	22.722	57.912
Cr	15.148	22.722	57.912
Cr	18.935	22.722	57.912
Cr	22.722	22.722	57.912
Cr	26.509	22.722	57.912
Cr	30.296	22.722	57.912
Cr	34.083	22.722	57.912
Cr	0	26.509	57.912
Cr	3.787	26.509	57.912
Cr	7.574	26.509	57.912
Cr	11.361	26.509	57.912
Cr	15.148	26.509	57.912
Cr	18.935	26.509	57.912
Cr	22.722	26.509	57.912
Cr	26.509	26.509	57.912
Cr	30.296	26.509	57.912
Cr	34.083	26.509	57.912
Cr	0	30.296	57.912
Cr	3.787	30.296	57.912
Cr	7.574	30.296	57.912
Cr	11.361	30.296	57.912
Cr	15.148	30.296	57.912
Cr	18.935	30.296	57.912
Cr	22.722	30.296	57.912
Cr	26.509	30.296	57.912
Cr	30.296	30.296	57.912
Cr	34.083	30.296	57.912
Cr	0	34.083	57.912
Cr	3.787	34.083	57.912
Cr	7.574	34.083	57.912
Cr	11.361	34.083	57.912
Cr	15.148	34.083	57.912
Cr	18.935	34.083	57.912
Cr	22.722	34.083	57.912
Cr	26.509	34.083	57.912
Cr	30.296	34.083	57.912
Cr	34.083	34.083	57.912
